version 2
run Red8012154-5-20121204-20:02:31-29937
attr configname Red8012154
attr datetime 20121204-20:02:31
attr experiment Red8012154
attr inifile omnetpp.ini
attr iterationvars ""
attr iterationvars2 $repetition=5
attr measurement ""
attr network ieee802154Narrow
attr processid 29937
attr repetition 5
attr replication #5
attr resultdir results
attr runnumber 5
attr seedset 5

